29

O 7.020878649999999 6.1146823349999995 7.948766932000001
O 5.210564144 6.1538993 9.446500840999999
O 7.830443442999999 8.01157529 6.3754342930000005
O 7.253400849999999 10.033118745 5.565473016000001
N 5.967036368 9.12460837 7.145310662000001
C 5.448253504 8.190784355 8.077636395
C 4.3280132159999996 8.78344954 8.591531948
C 4.150004554 10.068596195 8.011531458999999
C 5.1542421 10.255571945 7.132828081
C 7.1029073149999995 8.983561535 6.350117509
C 8.341733925 10.06639084 4.536451233
C 8.142410728 8.91807208 3.5643922140000006
C 9.692042011999998 10.057952959999998 5.223168999000001
C 8.070716383 11.399671764999999 3.8697759210000013
B 5.9507598139999995 6.7660291400000006 8.491143867
H 7.44458577 6.677431400000001 7.361206570000001
H 5.4694388599999995 5.2775104 9.56763462
H 3.7655678499999996 8.381307849999999 9.26348159
H 3.4619972 10.6643297 8.20685748
H 5.38418072 10.99129755 6.55599219
H 7.2081882 8.93744085 3.2173413000000006
H 8.30491791 8.04187495 3.961021830000001
H 8.768670519999999 9.0362024 2.8182503300000006
H 9.78660104 10.8752767 5.831650870000001
H 9.85506591 9.217425050000001 5.71737372
H 10.39374234 10.11299095 4.534165690000001
H 8.12277552 12.12849365 4.51306837
H 7.17072629 11.3892203 3.482815910000001
H 8.74283472 11.54167745 3.168114220000001
