Test example
  CML DOM 06260809363D

  3  0  0  0  0  0  0  0  0  0999 V2000
    0.0000    0.0000    0.0000 C   0  0  0  0  0  0  0  0  0  0  0  0
    1.3400    0.0000    0.0000 N   0  0  0  0  0  0  0  0  0  0  0  0
    2.0000    1.1000    0.0000 O   0  0  0  0  0  0  0  0  0  0  0  0
M  END
